data_image0
_cell_length_a       9.97577
_cell_length_b       5.77653
_cell_length_c       14.2297
_cell_angle_alpha    90.7296
_cell_angle_beta     90.8478
_cell_angle_gamma    30.2926

_symmetry_space_group_name_H-M    "P 1"
_symmetry_int_tables_number       1

loop_
  _symmetry_equiv_pos_as_xyz
  'x, y, z'

loop_
  _atom_site_label
  _atom_site_occupancy
  _atom_site_fract_x
  _atom_site_fract_y
  _atom_site_fract_z
  _atom_site_thermal_displace_type
  _atom_site_B_iso_or_equiv
  _atom_site_type_symbol
  Ga1      1.0000 0.83333  0.00000  0.95833  Biso   1.000  Ga
  Al1      1.0000 0.50000  0.00000  0.00000  Biso   1.000  Al
  Al2      1.0000 0.66667  0.50000  0.16667  Biso   1.000  Al
  Al3      1.0000 0.16667  0.50000  0.16667  Biso   1.000  Al
  Ga2      1.0000 0.50000  0.00000  0.37500  Biso   1.000  Ga
  Ga3      1.0000 0.16667  0.00000  0.29167  Biso   1.000  Ga
  Ga4      1.0000 0.00000  0.00000  0.50000  Biso   1.000  Ga
  Ga5      1.0000 0.83333  0.00000  0.33333  Biso   1.000  Ga
  Al4      1.0000 0.00000  0.50000  0.50000  Biso   1.000  Al
  Al5      1.0000 0.50000  0.50000  0.50000  Biso   1.000  Al
  Ga6      1.0000 0.83333  0.00000  0.70833  Biso   1.000  Ga
  Al6      1.0000 0.50000  0.00000  0.62500  Biso   1.000  Al
  Ga7      1.0000 0.33333  0.00000  0.83333  Biso   1.000  Ga
  Ga8      1.0000 0.16667  0.00000  0.66667  Biso   1.000  Ga
  Al7      1.0000 0.33333  0.50000  0.83333  Biso   1.000  Al
  Ga9      1.0000 0.83333  0.50000  0.83333  Biso   1.000  Ga
  O1       1.0000 0.34000  0.00000  0.08500  Biso   1.000  O
  O2       1.0000 0.16667  0.00000  0.91167  Biso   1.000  O
  O3       1.0000 0.34000  0.48000  0.08500  Biso   1.000  O
  O4       1.0000 0.82000  0.52000  0.08500  Biso   1.000  O
  O5       1.0000 0.83333  0.00000  0.08833  Biso   1.000  O
  O6       1.0000 0.66000  0.00000  0.91500  Biso   1.000  O
  O7       1.0000 0.66000  0.52000  0.91500  Biso   1.000  O
  O8       1.0000 0.18000  0.48000  0.91500  Biso   1.000  O
  O9       1.0000 0.67333  0.00000  0.41833  Biso   1.000  O
  O10      1.0000 0.50000  0.00000  0.24500  Biso   1.000  O
  O11      1.0000 0.67333  0.48000  0.41833  Biso   1.000  O
  O12      1.0000 0.15333  0.52000  0.41833  Biso   1.000  O
  O13      1.0000 0.16667  0.00000  0.42167  Biso   1.000  O
  O14      1.0000 0.99333  0.00000  0.24833  Biso   1.000  O
  O15      1.0000 0.99333  0.52000  0.24833  Biso   1.000  O
  O16      1.0000 0.51333  0.48000  0.24833  Biso   1.000  O
  O17      1.0000 0.00667  0.00000  0.75167  Biso   1.000  O
  O18      1.0000 0.83333  0.00000  0.57833  Biso   1.000  O
  O19      1.0000 0.00667  0.48000  0.75167  Biso   1.000  O
  O20      1.0000 0.48667  0.52000  0.75167  Biso   1.000  O
  O21      1.0000 0.50000  0.00000  0.75500  Biso   1.000  O
  O22      1.0000 0.32667  0.00000  0.58167  Biso   1.000  O
  O23      1.0000 0.32667  0.52000  0.58167  Biso   1.000  O
  O24      1.0000 0.84667  0.48000  0.58167  Biso   1.000  O
